Version 4
SHEET 1 908 680
WIRE 64 -80 64 -96
WIRE 176 -80 176 -96
WIRE 352 -80 352 -96
WIRE 64 16 64 -16
WIRE 176 16 176 0
WIRE 176 16 64 16
WIRE 176 32 176 16
WIRE 352 32 352 0
WIRE 80 64 48 64
WIRE 480 96 432 96
WIRE 608 96 480 96
WIRE 720 96 608 96
WIRE 608 112 608 96
WIRE 720 112 720 96
WIRE -32 128 -80 128
WIRE 80 128 48 128
WIRE 480 144 480 96
WIRE 480 144 432 144
WIRE 480 160 480 144
WIRE -80 192 -80 128
WIRE 80 192 -80 192
WIRE 608 208 608 176
WIRE 720 208 720 192
WIRE -32 256 -48 256
WIRE 80 256 48 256
WIRE 480 272 480 240
WIRE 480 272 432 272
WIRE 480 288 480 272
WIRE -80 320 -80 192
WIRE 80 320 -80 320
WIRE -80 336 -80 320
WIRE 480 384 480 368
WIRE -80 432 -80 416
FLAG 480 384 0
FLAG -80 432 0
FLAG 48 64 0
FLAG 176 -96 0
FLAG 352 -96 0
FLAG 720 208 0
FLAG 608 208 0
FLAG 64 -96 0
FLAG -48 256 0
SYMBOL voltage -80 320 R0
WINDOW 123 0 0 Left 0
WINDOW 39 0 0 Left 0
SYMATTR InstName V1
SYMATTR Value -5
SYMBOL res 160 -96 R0
SYMATTR InstName R1
SYMATTR Value 33K
SYMBOL res 336 -96 R0
SYMATTR InstName R2
SYMATTR Value 7.5K
SYMBOL res 464 144 R0
SYMATTR InstName R3
SYMATTR Value 982K
SYMBOL res 464 272 R0
SYMATTR InstName R4
SYMATTR Value 100K
SYMBOL res 64 112 R90
WINDOW 0 0 56 VBottom 2
WINDOW 3 32 56 VTop 2
SYMATTR InstName R5
SYMATTR Value 100K
SYMBOL res 704 96 R0
SYMATTR InstName R6
SYMATTR Value 6.64
SYMBOL cap 592 112 R0
SYMATTR InstName C1
SYMATTR Value 10µ
SYMBOL cap 48 -80 R0
SYMATTR InstName C2
SYMATTR Value 4.7µ
SYMBOL res 64 240 R90
WINDOW 0 0 56 VBottom 2
WINDOW 3 32 56 VTop 2
SYMATTR InstName R7
SYMATTR Value 100K
SYMBOL LT3094 256 144 R0
SYMATTR InstName U1
TEXT 544 464 Left 2 !.tran 50m startup
