Version 4
SHEET 1 2456 932
WIRE 1408 64 1264 64
WIRE 2096 64 1408 64
WIRE 2400 64 2096 64
WIRE 304 80 -96 80
WIRE 544 80 304 80
WIRE 736 80 544 80
WIRE 1040 80 736 80
WIRE 1264 96 1264 64
WIRE -96 112 -96 80
WIRE 2096 112 2096 64
WIRE 304 128 304 80
WIRE 544 128 544 80
WIRE 736 128 736 80
WIRE 1408 144 1408 64
WIRE 1264 192 1264 176
WIRE 1344 192 1264 192
WIRE -96 208 -96 192
WIRE 48 208 -96 208
WIRE 1264 224 1264 192
WIRE 2096 224 2096 192
WIRE -96 240 -96 208
WIRE 304 240 304 208
WIRE 544 240 544 208
WIRE 736 240 736 208
WIRE 1040 240 1040 80
WIRE 1408 272 1408 240
WIRE 1408 272 1328 272
WIRE 2032 272 1408 272
WIRE 48 288 48 208
WIRE 48 288 -32 288
WIRE 240 288 48 288
WIRE 480 288 240 288
WIRE 672 288 480 288
WIRE 2096 336 2096 320
WIRE 1040 352 1040 320
WIRE 1264 432 1264 320
WIRE 1664 432 1264 432
WIRE 2096 432 2096 416
WIRE 2096 432 1664 432
WIRE -96 448 -96 336
WIRE 304 448 304 336
WIRE 304 448 -96 448
WIRE 544 448 544 336
WIRE 544 448 304 448
WIRE 736 448 736 336
WIRE 736 448 544 448
WIRE 48 544 -96 544
WIRE 304 544 48 544
WIRE 544 544 304 544
WIRE 736 544 544 544
WIRE 1040 544 736 544
WIRE -96 576 -96 544
WIRE 304 592 304 544
WIRE 544 592 544 544
WIRE 736 592 736 544
WIRE 48 624 48 544
WIRE -96 672 -96 656
WIRE -16 672 -96 672
WIRE -96 704 -96 672
WIRE 304 704 304 672
WIRE 544 704 544 672
WIRE 736 704 736 672
WIRE 48 752 48 720
WIRE 48 752 -32 752
WIRE 240 752 48 752
WIRE 480 752 240 752
WIRE 672 752 480 752
WIRE -96 912 -96 800
WIRE 304 912 304 800
WIRE 304 912 -96 912
WIRE 544 912 544 800
WIRE 544 912 304 912
WIRE 736 912 736 800
WIRE 736 912 544 912
FLAG 1040 352 0
FLAG 304 448 0
FLAG 1040 80 Vcc
FLAG 304 912 0
FLAG 1040 544 Vcc
FLAG 1664 432 0
FLAG 2400 64 Vcc
SYMBOL npn 480 240 R0
SYMATTR InstName Q2
SYMATTR Value CA3046
SYMBOL voltage 1040 224 R0
WINDOW 123 0 0 Left 0
WINDOW 39 0 0 Left 0
SYMATTR InstName V1
SYMATTR Value 10V
SYMBOL npn -32 240 M0
SYMATTR InstName Q5
SYMATTR Value CA3046
SYMBOL npn 240 240 R0
SYMATTR InstName Q1
SYMATTR Value CA3046
SYMBOL npn 672 240 R0
SYMATTR InstName Q3
SYMATTR Value CA3046
SYMBOL res -112 96 R0
SYMATTR InstName R5
SYMATTR Value 12k
SYMBOL res 288 112 R0
SYMATTR InstName R1
SYMATTR Value 12k
SYMBOL res 528 112 R0
SYMATTR InstName R2
SYMATTR Value 12k
SYMBOL res 720 112 R0
SYMATTR InstName R3
SYMATTR Value 12k
SYMBOL npn 480 704 R0
SYMATTR InstName Q4
SYMATTR Value CA3046
SYMBOL npn -32 704 M0
SYMATTR InstName Q6
SYMATTR Value CA3046
SYMBOL npn 240 704 R0
SYMATTR InstName Q7
SYMATTR Value CA3046
SYMBOL npn 672 704 R0
SYMATTR InstName Q8
SYMATTR Value CA3046
SYMBOL res -112 560 R0
SYMATTR InstName R4
SYMATTR Value 12k
SYMBOL res 288 576 R0
SYMATTR InstName R6
SYMATTR Value 12k
SYMBOL res 528 576 R0
SYMATTR InstName R7
SYMATTR Value 12k
SYMBOL res 720 576 R0
SYMATTR InstName R8
SYMATTR Value 12k
SYMBOL npn -16 624 R0
SYMATTR InstName Q9
SYMATTR Value CA3046
SYMBOL npn 1328 224 M0
SYMATTR InstName Q11
SYMATTR Value CA3046
SYMBOL npn 2032 224 R0
SYMATTR InstName Q13
SYMATTR Value CA3046
SYMBOL res 1248 80 R0
SYMATTR InstName R9
SYMATTR Value 12k
SYMBOL res 2080 96 R0
SYMATTR InstName R12
SYMATTR Value 12k
SYMBOL npn 1344 144 R0
SYMATTR InstName Q14
SYMATTR Value CA3046
SYMBOL res 2080 320 R0
SYMATTR InstName R10
SYMATTR Value 10k
TEXT -96 -56 Left 2 !.op
TEXT -96 -176 Left 2 ;Universidade Federal de Santa Catarina - UFSC\nEngenharia Eletrônica - EEL7303 - Circuitos Eletrônicos Analógicos\nExp08 - ESPELHOS E FONTE DE CORRENTE WIDLAR COM TRANSISTORES BIPOLARES\nGustavo Simas e André Mattos
TEXT -96 -16 Left 2 !.lib D:\\Usuário\\Documents\\LTspiceXVII\\lib\\CA3046.lib
