Version 4
SHEET 1 2036 1076
WIRE -16 384 -64 384
WIRE 144 384 64 384
WIRE 288 384 144 384
WIRE 496 400 352 400
WIRE 544 400 496 400
WIRE 704 400 624 400
WIRE 848 400 704 400
WIRE 288 416 224 416
WIRE 1056 416 912 416
WIRE 1104 416 1056 416
WIRE 1264 416 1184 416
WIRE 1408 416 1264 416
WIRE 848 432 784 432
WIRE 1616 432 1472 432
WIRE 144 448 144 384
WIRE 1408 448 1344 448
WIRE 704 464 704 400
WIRE 1264 480 1264 416
WIRE 224 528 224 416
WIRE 496 528 496 400
WIRE 496 528 224 528
WIRE 144 544 144 512
WIRE 784 544 784 432
WIRE 1056 544 1056 416
WIRE 1056 544 784 544
WIRE 704 560 704 528
WIRE 1344 560 1344 448
WIRE 1616 560 1616 432
WIRE 1616 560 1344 560
WIRE 1264 576 1264 544
WIRE 544 816 512 816
WIRE 704 816 624 816
WIRE 944 816 784 816
WIRE 944 928 944 816
WIRE 944 928 880 928
WIRE 992 928 944 928
WIRE 1616 928 1616 560
WIRE 1616 928 1072 928
WIRE -64 944 -64 384
WIRE 512 944 512 816
WIRE 512 944 -64 944
WIRE 816 944 512 944
WIRE 944 960 880 960
WIRE 944 1008 944 960
FLAG 144 544 0
FLAG 1312 192 0
FLAG 1504 192 0
FLAG 1312 112 +VCC
FLAG 320 432 +VCC
FLAG 1504 112 -VCC
FLAG 320 368 -VCC
FLAG 704 560 0
FLAG 880 448 +VCC
FLAG 880 384 -VCC
FLAG 1264 576 0
FLAG 1440 464 +VCC
FLAG 1440 400 -VCC
FLAG 848 912 +VCC
FLAG 848 976 -VCC
FLAG 944 1008 0
FLAG 1616 432 Vo
FLAG -64 384 V1
FLAG 496 400 V2
FLAG 1056 416 V3
SYMBOL Opamps\\opamp2 320 464 M180
SYMATTR InstName U1
SYMATTR Value TL084
SYMBOL res 80 368 R90
WINDOW 0 0 56 VBottom 2
WINDOW 3 32 56 VTop 2
SYMATTR InstName R1
SYMATTR Value {R}
SYMBOL cap 128 448 R0
SYMATTR InstName C1
SYMATTR Value {C}
SYMBOL voltage 1312 96 R0
WINDOW 123 0 0 Left 0
WINDOW 39 0 0 Left 0
SYMATTR InstName V1
SYMATTR Value +12V
SYMBOL voltage 1504 96 R0
WINDOW 123 0 0 Left 0
WINDOW 39 0 0 Left 0
SYMATTR InstName V2
SYMATTR Value -12V
SYMBOL Opamps\\opamp2 880 480 M180
SYMATTR InstName U2
SYMATTR Value TL084
SYMBOL res 640 384 R90
WINDOW 0 0 56 VBottom 2
WINDOW 3 32 56 VTop 2
SYMATTR InstName R2
SYMATTR Value {R}
SYMBOL cap 688 464 R0
SYMATTR InstName C2
SYMATTR Value {C}
SYMBOL Opamps\\opamp2 1440 496 M180
SYMATTR InstName U3
SYMATTR Value TL084
SYMBOL res 1200 400 R90
WINDOW 0 0 56 VBottom 2
WINDOW 3 32 56 VTop 2
SYMATTR InstName R3
SYMATTR Value {R}
SYMBOL cap 1248 480 R0
SYMATTR InstName C3
SYMATTR Value {C}
SYMBOL res 1088 912 R90
WINDOW 0 0 56 VBottom 2
WINDOW 3 32 56 VTop 2
SYMATTR InstName R4
SYMATTR Value 1k
SYMBOL res 800 800 R90
WINDOW 0 0 56 VBottom 2
WINDOW 3 32 56 VTop 2
SYMATTR InstName R5
SYMATTR Value 4.7k
SYMBOL res 640 800 R90
WINDOW 0 0 56 VBottom 2
WINDOW 3 32 56 VTop 2
SYMATTR InstName R6
SYMATTR Value 8k
SYMBOL Opamps\\opamp2 848 880 M0
SYMATTR InstName U4
SYMATTR Value TL084
TEXT 744 168 Left 2 !.lib tl084.lib.txt
TEXT 744 208 Left 2 !.params R=5K C=11nF
TEXT 744 56 Left 2 !.tran 0 20ms 0 1u
TEXT 744 24 Left 2 !.op
TEXT 744 88 Left 2 !;ac dec 101 10 100MEG
TEXT -64 48 Left 2 ;Universidade Federal de Santa Catarina - UFSC\nEngenharia Eletrônica - EEL7303 - Circuitos Eletrônicos Analógicos\nExp10 - OSCILADOR A DESLOCAMENTO DE FASE \n\nGustavo Simas e André Mattos
