Version 4
SHEET 1 2112 1092
WIRE 592 304 176 304
WIRE 1232 304 672 304
WIRE 176 400 176 304
WIRE 272 400 176 400
WIRE 432 400 352 400
WIRE 176 496 176 400
WIRE 272 496 176 496
WIRE 432 496 432 400
WIRE 432 496 336 496
WIRE 688 512 624 512
WIRE 816 512 752 512
WIRE 1024 512 976 512
WIRE 1232 512 1232 304
WIRE 1232 512 1104 512
WIRE 0 624 -96 624
WIRE 176 624 176 496
WIRE 176 624 80 624
WIRE 272 624 176 624
WIRE 432 640 432 496
WIRE 432 640 336 640
WIRE 464 640 432 640
WIRE 624 640 624 512
WIRE 624 640 544 640
WIRE 688 640 624 640
WIRE -96 656 -96 624
WIRE 272 656 208 656
WIRE 816 656 816 512
WIRE 816 656 752 656
WIRE 864 656 816 656
WIRE 976 656 976 512
WIRE 976 656 944 656
WIRE 1040 656 976 656
WIRE 688 672 624 672
WIRE 1232 672 1232 512
WIRE 1232 672 1104 672
WIRE 1040 688 976 688
WIRE 208 704 208 656
WIRE 624 720 624 672
WIRE 976 736 976 688
FLAG 1392 464 0
FLAG 1568 464 0
FLAG 1392 384 +VCC
FLAG 1568 384 -VCC
FLAG 304 608 +VCC
FLAG 304 672 -VCC
FLAG -96 736 0
FLAG 208 704 0
FLAG 720 624 +VCC
FLAG 720 688 -VCC
FLAG 624 720 0
FLAG 1072 640 +VCC
FLAG 1072 704 -VCC
FLAG 976 736 0
FLAG 432 640 VPF
FLAG 1232 672 VPB
SYMBOL Misc\\signal -96 640 R0
WINDOW 123 24 132 Left 2
WINDOW 39 0 0 Left 0
SYMATTR InstName V1
SYMATTR Value2 AC 1 0
SYMBOL Opamps\\opamp2 304 576 R0
SYMATTR InstName U1
SYMATTR Value LM741/NS
SYMBOL voltage 1392 368 R0
WINDOW 123 0 0 Left 0
WINDOW 39 0 0 Left 0
SYMATTR InstName +VCC
SYMATTR Value 12V
SYMBOL voltage 1568 368 R0
WINDOW 123 0 0 Left 0
WINDOW 39 0 0 Left 0
SYMATTR InstName -VCC
SYMATTR Value -12V
SYMBOL res 96 608 R90
WINDOW 0 0 56 VBottom 2
WINDOW 3 32 56 VTop 2
SYMATTR InstName R4
SYMATTR Value {R}
SYMBOL res 560 624 R90
WINDOW 0 0 56 VBottom 2
WINDOW 3 32 56 VTop 2
SYMATTR InstName R2
SYMATTR Value {R}
SYMBOL res 368 384 R90
WINDOW 0 0 56 VBottom 2
WINDOW 3 32 56 VTop 2
SYMATTR InstName R1
SYMATTR Value 8.2k
SYMBOL res 688 288 R90
WINDOW 0 0 56 VBottom 2
WINDOW 3 32 56 VTop 2
SYMATTR InstName R3
SYMATTR Value {R}
SYMBOL Opamps\\opamp2 720 592 R0
SYMATTR InstName U2
SYMATTR Value LM741/NS
SYMBOL Opamps\\opamp2 1072 608 R0
SYMATTR InstName U3
SYMATTR Value LM741/NS
SYMBOL cap 336 480 R90
WINDOW 0 0 32 VBottom 2
WINDOW 3 32 32 VTop 2
SYMATTR InstName C1
SYMATTR Value {C}
SYMBOL cap 752 496 R90
WINDOW 0 0 32 VBottom 2
WINDOW 3 32 32 VTop 2
SYMATTR InstName C2
SYMATTR Value {C}
SYMBOL res 960 640 R90
WINDOW 0 0 56 VBottom 2
WINDOW 3 32 56 VTop 2
SYMATTR InstName RI1
SYMATTR Value {RI}
SYMBOL res 1120 496 R90
WINDOW 0 0 56 VBottom 2
WINDOW 3 32 56 VTop 2
SYMATTR InstName RI2
SYMATTR Value {RI}
TEXT -104 48 Left 2 ;Universidade Federal de Santa Catarina - UFSC\nEngenharia Eletrônica - EEL7303 - Circuitos Eletrônicos Analógicos\nExp11 - FILTRO ATIVO-RC COM AMP.OP. (Filtro Tow-Thomas - TT)\nGustavo Simas e André Mattos
TEXT 760 32 Left 2 !.op
TEXT 760 64 Left 2 !;tran 0 50ms 0 1u
TEXT 760 96 Left 2 !.ac dec 101 10 100MEG
TEXT 760 136 Left 2 !.params R=1.6K RI=1K C=100n
TEXT 760 176 Left 2 !.include D:\\Usuário\\Documents\\GitHub\\EEL7303\\Laboratorios\\LAB02\\Modelos\\LM741.MOD
