Version 4
SHEET 1 1608 948
WIRE 544 32 544 0
WIRE 320 96 320 0
WIRE 544 176 544 112
WIRE 320 224 320 176
WIRE 320 224 -192 224
WIRE 480 224 320 224
WIRE -192 240 -192 224
WIRE 544 304 544 272
WIRE 544 320 544 304
WIRE 320 336 320 224
WIRE -192 352 -192 320
WIRE 192 352 -192 352
WIRE 240 352 192 352
WIRE 320 352 320 336
WIRE -48 400 -80 400
WIRE 96 400 -48 400
WIRE 240 400 240 352
WIRE 240 400 176 400
WIRE 256 400 240 400
WIRE 544 432 544 400
WIRE 864 432 544 432
WIRE 544 464 544 432
WIRE 864 464 864 432
WIRE -80 480 -80 400
WIRE -192 544 -192 352
WIRE 544 576 544 544
WIRE 864 592 864 544
WIRE 544 608 544 576
WIRE -192 656 -192 624
WIRE 320 656 320 448
WIRE 320 656 -192 656
WIRE 384 656 320 656
WIRE 480 656 384 656
WIRE 320 704 320 656
WIRE 544 832 544 784
WIRE 320 864 320 784
WIRE 544 864 544 832
FLAG 1008 560 0
FLAG 1136 560 0
FLAG 1008 480 vcc
FLAG 1136 480 vee
FLAG 544 0 vcc
FLAG 544 832 vee
FLAG 864 592 0
FLAG 320 336 vb
FLAG 864 432 vo
FLAG 320 0 vcc
FLAG 320 864 vee
FLAG -80 560 0
FLAG 544 304 vc1
FLAG -48 400 vi
FLAG 192 352 vs
FLAG 544 576 ve2
FLAG 384 656 vb2
SYMBOL npn 480 176 R0
SYMATTR InstName Q1
SYMATTR Value BC546B
SYMBOL pnp 480 704 M180
SYMATTR InstName Q2
SYMATTR Value BC556B
SYMBOL res 560 128 R180
WINDOW 0 36 76 Left 2
WINDOW 3 36 40 Left 2
SYMATTR InstName R2
SYMATTR Value 10
SYMBOL voltage 1008 464 R0
WINDOW 123 0 0 Left 0
WINDOW 39 0 0 Left 0
SYMATTR InstName V1
SYMATTR Value 5
SYMBOL voltage 1136 464 R0
WINDOW 123 0 0 Left 0
WINDOW 39 0 0 Left 0
SYMATTR InstName V2
SYMATTR Value -5
SYMBOL res 848 448 R0
SYMATTR InstName RL
SYMATTR Value 8
SYMBOL res 528 688 R0
SYMATTR InstName R3
SYMATTR Value 10
SYMBOL res 528 448 R0
SYMATTR InstName R4
SYMATTR Value 10
SYMBOL res 528 304 R0
SYMATTR InstName R5
SYMATTR Value 10
SYMBOL npn 256 352 R0
SYMATTR InstName Q3
SYMATTR Value BC546B
SYMBOL res 304 80 R0
SYMATTR InstName R1
SYMATTR Value 10k
SYMBOL res 304 688 R0
SYMATTR InstName R6
SYMATTR Value 10k
SYMBOL res 192 384 R90
WINDOW 0 0 56 VBottom 2
WINDOW 3 32 56 VTop 2
SYMATTR InstName R7
SYMATTR Value 1k
SYMBOL Misc\\signal -80 464 R0
WINDOW 123 24 132 Left 2
WINDOW 39 0 0 Left 0
SYMATTR Value2 AC 0.2 0
SYMATTR InstName V3
SYMATTR Value SINE(-0.7 0.2 1K)
SYMBOL res -208 528 R0
SYMATTR InstName R9
SYMATTR Value 5k
SYMBOL res -208 224 R0
SYMATTR InstName R8
SYMATTR Value 5k
TEXT 832 216 Left 2 !.op
TEXT 832 72 Left 2 ;Universidade Federal de Santa Catarina - UFSC\nEngenharia Eletrônica - EEL7303 - Circuitos Eletrônicos Analógicos\nExp04 - Estágio de Saída\nGustavo Simas e André Mattos
TEXT 832 248 Left 2 !.ac dec 101 10 100MEG
TEXT 832 296 Left 2 !;tran 0 5m 0 10n
TEXT 832 344 Left 2 !.four 1k V(vo)
