Version 4
SHEET 1 1288 680
WIRE 224 -64 224 -96
WIRE 224 80 224 16
WIRE 160 128 0 128
WIRE -144 208 -240 208
WIRE 0 208 0 128
WIRE 0 208 -64 208
WIRE 224 224 224 176
WIRE 544 224 224 224
WIRE -240 256 -240 208
WIRE 224 256 224 224
WIRE 544 256 544 224
WIRE 0 304 0 208
WIRE 160 304 0 304
WIRE -240 368 -240 336
WIRE 544 384 544 336
WIRE 224 400 224 352
WIRE 224 528 224 480
WIRE 224 560 224 528
FLAG -144 -80 0
FLAG -16 -80 0
FLAG -144 -160 vcc
FLAG -16 -160 vee
FLAG -240 368 0
FLAG 224 -96 vcc
FLAG 224 528 vee
FLAG 544 384 0
FLAG -240 208 vi
FLAG 0 128 vb
FLAG 544 224 vo
SYMBOL npn 160 80 R0
SYMATTR InstName Q1
SYMATTR Value BC546B
SYMBOL pnp 160 352 M180
SYMATTR InstName Q2
SYMATTR Value BC556B
SYMBOL res -48 192 R90
WINDOW 0 0 56 VBottom 2
WINDOW 3 32 56 VTop 2
SYMATTR InstName R1
SYMATTR Value 10k
SYMBOL res 240 32 R180
WINDOW 0 36 76 Left 2
WINDOW 3 36 40 Left 2
SYMATTR InstName R2
SYMATTR Value 100
SYMBOL voltage -144 -176 R0
WINDOW 123 0 0 Left 0
WINDOW 39 0 0 Left 0
SYMATTR InstName V1
SYMATTR Value 5
SYMBOL voltage -16 -176 R0
WINDOW 123 0 0 Left 0
WINDOW 39 0 0 Left 0
SYMATTR InstName V2
SYMATTR Value -5
SYMBOL Misc\\signal -240 240 R0
WINDOW 123 24 132 Left 2
WINDOW 39 0 0 Left 0
SYMATTR Value2 AC 1 0
SYMATTR InstName V3
SYMATTR Value SINE(0 1 10K)
SYMBOL res 528 240 R0
SYMATTR InstName RL
SYMATTR Value 8R
SYMBOL res 208 384 R0
SYMATTR InstName R3
SYMATTR Value 100
TEXT 328 8 Left 2 !.op
TEXT 512 -136 Left 2 ;Universidade Federal de Santa Catarina - UFSC\nEngenharia Eletrônica - EEL7303 - Circuitos Eletrônicos Analógicos\nExp04 - Estágio de Saída\nGustavo Simas e André Mattos
TEXT 328 40 Left 2 !;ac dec 101 10 100MEG
TEXT 328 88 Left 2 !.tran 0 5m 0 10n
TEXT 328 136 Left 2 !;.four 1k V(vo2-vo1)
