**$ENCRYPTED_LIB
**$INTERFACE
*Created on 27th July, 2004 
*Added battery models & PWM models.
*Edited on 17th Aug to remove duplicate model 434 and invalid model38 (OU)
*Corrected the PCR 417409 VOS for LEVEL3 Opamp Model; 
*PCR 839041 Added template model 400,401,402 for Discrete Res Cap & Ind Parts ; 
* Fixed PCR-800550: modified this file for Reserved Keywords, 
*Revision History : Aug 2011
*Description : Added templates for regulators used in micrel library.
* Nov 2011: FIxed Zener 434 TCBV_1 equation CCMPR00957651
*TEMPLATE(PARAMETERIZED)
*MODEL TYPE : 234
*DEVICE TYPE : mr2520l
*NAME : TRANSIENT SUPPRESSOR/ZENER DIODE
*PORT ORDER : 	AN    CAT
*$
.SUBCKT model234  8 	2
+ params:
+ STATE_FACTOR=0
+ VZT=400
+ IZT=1E-3
+ VCL=438.4
+ IPP=1.3
+ TCBV=354
+ IR=1.25E-6
+ VR=342
+ IRM=2.5E-6
+ ISF=1.345E-14
+ NF=931.8E-03
+ RSF=1.074
+ CP=360E-12
+ ZZT=0.25
+ CJ1=1500p
+ VJ1=0.0
+ TEM=40
$CDNENCSTART
eee8c5c7a2bc4b01f045f303678664e7916da0bae22e8cb0bba041dd67c69ce448ea70148a9ac1670c8926c1ac5057c8ccfcd77bf87ca9dca4847e5eed1f8bbb
7125637e781e961ce2258aeac9f06c8b6284290e9fd72cc717b7bf0ed8484c15a42d96dbc00243560d099e2952f32474cc6e520fc1d7b4828f37b39ca5c3a6dd
607f1dcea0437d7e99a5cdb41691e43d3c69a7900f422bd13165bc4d1c5b28473ec929d11a5670a4c28a688e191d78af15f9b57a836304e94e744a8c32391436
2afc2aac32001ff43a622643fb3993f35b8181a75ee7c35517b7bf0ed8484c15a42d96dbc00243560d099e2952f32474cc6e520fc1d7b4828f37b39ca5c3a6dd
7125637e781e961c67563c4d0d11bec198741a3b7e69b2b5a465ac08660c36aaa34ed272c0a2eb221d3bf477b91169e66504ee72676637d86170c8cd223a3dd4
607f1dcea0437d7ec850ba5a1ac91eb867e393874883a047a465ac08660c36aaa34ed272c0a2eb221d3bf477b91169e66504ee72676637d86170c8cd223a3dd4
607f1dcea0437d7e34498b6ec29341a5e71f71e187584171cb2c3e28993ee88c20a667e76e3c4eb7c5028486c2f54524d85ff5a019547ae0b5ed34f74a6b722d
31fcef51370c81873fcad1db8477ad9ec245c2386163cea3b15f507d07a74d6a969a5cf8c9fa1becd928a896f5c47f0eac3dd73861010663eae1a380b536a4d5
*.PARAM TEMPK = {40+273.1}
31fcef51370c8187560f64ee3ce033f43f81912e796fd651dbada8cfcc20fff297ad4226545ad2a8db202453164c6b3df698d431d138b477350de9708957027e
31fcef51370c818715482065924938575f0ec769af02bebbe71f71e187584171cb2c3e28993ee88c20a667e76e3c4eb7c5028486c2f545245e0163e3a04e656e
b4e2b45935a3836dd7b8142538c17fda9def4667b935a290ea07460530fec2b071f460432d0f18d75d91bcfdace50bedc68194e25a36b05dcac90dd454507134
b4e2b45935a3836ddebe1492395bcaec9f82d19298d4929de71f71e187584171cb2c3e28993ee88c20a667e76e3c4eb7c5028486c2f545245e0163e3a04e656e
b4e2b45935a3836db857e7b0f508dcda7dfbf06f7d20aac8e71f71e187584171cb2c3e28993ee88c20a667e76e3c4eb7c5028486c2f545245e0163e3a04e656e
78caa60348a24a0d8d77ed8966907ea6b304ebd39d068232a465ac08660c36aaa34ed272c0a2eb221d3bf477b91169e66504ee72676637d86170c8cd223a3dd4
31fcef51370c8187ddfd25de69afd11491491a78ce9eef8ff510a701499d1d425f24fe6560182c796ce76c79e2c797d1969a5cf8c9fa1bec9aa86a8602f188e5
78caa60348a24a0df9a0eddc51f865935093a58e141af6b8c7b5d4a40a61afebf16a7dcf83fcb5f7061173c8b6d28e49bf8b6cdf9cb5715bcf8e195a9627b1d5
b7632745492389a22ad047204bef3c8eb7d9fcdc1b0a59cac7b5d4a40a61afebf16a7dcf83fcb5f7061173c8b6d28e49bf8b6cdf9cb5715bcf8e195a9627b1d5
fc8c4fb92a71ec0cd59dbe8d5b4677a1a08c65bb56c9f58bc029f365c2d3091ea4ef50afd8a3a0a45e2f83fc884d2c5317b7bf0ed8484c154cb69beece1d9ab7
b7632745492389a2dcfd880e1cc3db30366761cf7b46181aabdd26bb9e4c49df5f39352e2d243b972106dad92b8738b3c7b5d4a40a61afeb4f4901b8b0112c2e
b7632745492389a269cf9e9edc367a65aa9b3bc8f9ecf57afaacbe2b9b12170ddbada8cfcc20fff297ad4226545ad2a8db202453164c6b3dec9073ecf660b19e
b7632745492389a2280896c8a7b0dc356ad118d7db1cbc7fc7b5d4a40a61afebf16a7dcf83fcb5f7061173c8b6d28e49bf8b6cdf9cb5715bcf8e195a9627b1d5
78caa60348a24a0dbd7902d35312c436bff847ea92943a3ca465ac08660c36aaa34ed272c0a2eb221d3bf477b91169e66504ee72676637d86170c8cd223a3dd4
e07e344ac74ee99df805f39ae44bfe605a5122745b5683433165bc4d1c5b28473ec929d11a5670a4c28a688e191d78af15f9b57a836304e94e744a8c32391436
31fcef51370c81879f088ecadb87dadb77c35735d742736fe71f71e187584171cb2c3e28993ee88c20a667e76e3c4eb7c5028486c2f545245e0163e3a04e656e
b4e2b45935a3836df864021962a01910634638b4d6ed503332848a0a3421dbd29837b6cf29aa0694b9bd72a2be17a6688426cf15ca9858377ccc0443c629ad57
78caa60348a24a0ddacc3d9a1ff541c3f32e56256d02d2bf46fb867da6316d17cdef46212d7e36411be71211f0fe07e046bfe52c65b11709e57efc10e79712b4
b4e2b45935a3836df0a3f28ff8ce59e1d2a2dae965a77c915dd8d5e2709ef96438ea6bde0337386d89b81e5adde56668e71f71e18758417181c6f165fbd39d6f
b4e2b45935a3836dfd79c563ea18579a708836b257c3bc1e5611b8ef6b11c30807bcf82cad45eb843ebfaea67779c4c2ea07460530fec2b0d75bcd22765823a0
b4e2b45935a3836d425459f391141653dde56119790d72d0c1c28bb95b3148423165bc4d1c5b28473ec929d11a5670a4c28a688e191d78afbbbe5101566fdd35
fc8c4fb92a71ec0ca2baf44c57a7fe257609a4253c4660b33e6d401b0e260da25c18968b85c7804d4f86195b9fe47fefea07460530fec2b0d75bcd22765823a0
31fcef51370c8187d87b64e7b6233682e8616fabe426a8b8b029f7068630dbe43628b2ae6efc6666f222ee3c996cc8314ea59459643cc9860b9e87779bc9e65f
31fcef51370c8187d5cc09bfc18948daa7e63d118887ca134ea59459643cc986a465ac08660c36aaa34ed272c0a2eb221d3bf477b91169e6d37505874af29fdf
78caa60348a24a0d5242d483d556885c641db905815dff9271bf0202d94d61fc187e9011e87e727db530a783cb68aa56e71f71e18758417181c6f165fbd39d6f
b4e2b45935a3836df129f53713de66b0ad3b1fc7958c1c35bf823f46db966deca465ac08660c36aaa34ed272c0a2eb221d3bf477b91169e6d37505874af29fdf
b4e2b45935a3836d67db1ce8b4d60c43547b897bbb284270b64aa8a64f2d8900caf8bd8fc8ffb248969a5cf8c9fa1becd928a896f5c47f0e7728ca3ad7db38f0
b4e2b45935a3836d19f9dbe824df52c23075d499f5ad202193e5198d5f45aa84ea07460530fec2b071f460432d0f18d75d91bcfdace50bed85886bc4a38902ef
b4e2b45935a3836d4a0658fd31d1aefe485d6fd6da9d9035a3eb6587655d6c22dbada8cfcc20fff297ad4226545ad2a8db202453164c6b3dec9073ecf660b19e
78caa60348a24a0d4a0658fd31d1aefe48c035ac95e3aaa5ffe8ccf2dca45a03c7b5d4a40a61afebf16a7dcf83fcb5f7061173c8b6d28e4955e2d3aaf506062e
8d106153e6f8f9dbcd2601495ded3e1d9dc421022db482ecfd400073f4cde5c95611b8ef6b11c3082d110b42956dc94d2e888cab3baa0bb7aadc316e8c576bc4
1d4a0dfa5d4a90703165bc4d1c5b28473ec929d11a5670a4c28a688e191d78af15f9b57a836304e9ac92208faad3ae209acf7ede478a753aac5188c830817e5c
31fcef51370c818707a5ff60af14b6afa45bab2fe3236696ee557b0fefb9a1af49cbf779e74a556bea07460530fec2b071f460432d0f18d7beb8eaba0be089bb
*---------------------
*DECK OF THE TEMPLATE:
*---------------------
b1e216d18a3a2c6a6881452b9dd0d78e3165bc4d1c5b28473ec929d11a5670a4c28a688e191d78af15f9b57a836304e9ac92208faad3ae206f58924d590330fd
*DT1 1 9 M1MDT1 TEMPERATURE
08c41dbb93ab79ca2333a9b47178a26bea07460530fec2b071f460432d0f18d75d91bcfdace50bedc68194e25a36b05d2f08ea26d9acd4d51626ee722c80b0da
*RRZNOM1 9 8 RZNOM TC=TCRZ 0TEMPERATURE
b97d14fbd34106c8822a012da109a36c20a9b7b24ed7a346a465ac08660c36aaa34ed272c0a2eb221d3bf477b91169e66504ee72676637d86170c8cd223a3dd4
*DF1 8 2 M1MDF1 TEMPERATURE
605f531e7e75e1aacad248c6ade4716d17b7bf0ed8484c15a42d96dbc00243560d099e2952f32474cc6e520fc1d7b48258b3b7ca2b0468673180a4fd5bc6569d
*RRR 2 8 RR TC=TCRR 0TEMPERATURE 
bda027aaaaf1597e73592f0147a5553fc7b5d4a40a61afebf16a7dcf83fcb5f7061173c8b6d28e49bf8b6cdf9cb5715b8ea33c28f9e0bcbb38cef7636347e0f0
*CCP 2 8 CP TC=0.0
383f0f4d364503e140ea03d80ba08fc9c7b5d4a40a61afebf16a7dcf83fcb5f7061173c8b6d28e49bf8b6cdf9cb5715b8ea33c28f9e0bcbb38cef7636347e0f0
1747800afbd45e3a33de7dc183a45e843165bc4d1c5b28473ec929d11a5670a4c28a688e191d78af15f9b57a836304e9ac92208faad3ae206f58924d590330fd
*RRBVNOM 3 0 RBVNOM TC=TCVBV 0TEMPERATURE
54697040f9af259eead13aa6e2c7b5436b4b637ee92b56f0c7b5d4a40a61afebf16a7dcf83fcb5f7061173c8b6d28e49bf8b6cdf9cb5715bcf8e195a9627b1d5
*-------------
*MODELS USED:
*-------------
*.MODEL M1MDT1 D IS=IST N=NT EG=0.0 XTI=0.0 SPECTREPARASDT
2c82f61a3c71ea386af0a7c2ecc3cec103a212673ebf666c9d3b34a235158f07ea07460530fec2b071f460432d0f18d75d91bcfdace50bed85886bc4a38902ef
*.MODEL M1MDF1 D IS=ISF RS=RSF CJO=0.0 N=NF XTI=0 EG=0 SPECTREPARASDF 
2c82f61a3c71ea38e71a455ed9746f67c146203dd8f10f6519f10db209963e205535f7f51f9101806109d884c889a42548d6da21bfb15c55a7ef16b6e935ae2c
$CDNENCFINISH
.ENDS model234
*$
*-----------------------
*DEFINING MODEL_PARAMS:
*-----------------------
*    	VZT="Breakdown Voltage","V"
*     IZT="Current at VZT","A"
*    	VCL="Clamping Voltage","V"
*     IPP="Test Current at VCL","A" 
*    	TCBV="Temp Coeff of VZT","mV/C"
*	IR="Rev Leakage Current","A"
*	VR="Test Voltage at IR","V"
*	IRM="Max IR at 150C","A"
*     ISF="IS of Forward I-V","A"
*     NF="N of Forward I-V"
*     RSF="RS of Forward I-V","ohm"
*     CP="Typical Capacitance","F"
*---------
*COMMENTS:
*---------
*(1)'TEM=40' is taken as parameter and to be discussed to include 
*this one in the wrapper also.
*(1)Eqations for Parameters 'VZTCLNOM-RBVNOM' are taken from 
*awb.dirs,since they were not in the previous template.
********************************************************
*TEMPLATE(PARAMETERIZED)
*MODEL TYPE: 334
*DEVICE TYPE: v22za1
*NAME:"METAL OXIDE VARISTOR" 
*PORT_ORDER: 	CAT	AN
.subckt model334 	21	26 
+ PARAMS:
+ STATE_FACTOR=0
+ I1=1E-3
+ V1=36
+ I2=20
+ V2=63
+ CN=25E-09
+ RON=25E-03
$CDNENCSTART
eee8c5c7a2bc4b01f045f303678664e7916da0bae22e8cb0bba041dd67c69ce448ea70148a9ac1670c8926c1ac5057c8ccfcd77bf87ca9dca4847e5eed1f8bbb
78caa60348a24a0da34308c2994097a0ca541d93f3ee162e3165bc4d1c5b28473ec929d11a5670a4c28a688e191d78af15f9b57a836304e94e744a8c32391436
fc8c4fb92a71ec0c34552cea4ec5215c69adb849c99f16043165bc4d1c5b28473ec929d11a5670a4c28a688e191d78af15f9b57a836304e94e744a8c32391436
78caa60348a24a0da7f4fbddf11a05374d7fb8d367ac5cf33165bc4d1c5b28473ec929d11a5670a4c28a688e191d78af15f9b57a836304e94e744a8c32391436
78caa60348a24a0dcff57e070391bedfcd1827a041b55984c7b5d4a40a61afebf16a7dcf83fcb5f7061173c8b6d28e49bf8b6cdf9cb5715bcf8e195a9627b1d5
8d106153e6f8f9db010d23c8bdec7883e71f71e187584171cb2c3e28993ee88c20a667e76e3c4eb7c5028486c2f54524d85ff5a019547ae0b5ed34f74a6b722d
78caa60348a24a0d1d1f05d2434f089931ac3c967abcb7b2cc2c649a277cedd94fad6a525892ddfcc7b5d4a40a61afebf16a7dcf83fcb5f7835ff6be3561aa17
b4e2b45935a3836d8fb8c52f6f7c277c8da65aedfd2b6cce7eb303f48b4e22b8c2356fa0b0fe3ea9969a5cf8c9fa1becd928a896f5c47f0e7728ca3ad7db38f0
607f1dcea0437d7e97a2b1d14bf005e8c631085f371b6c504bbf5fa8614861d0a465ac08660c36aaa34ed272c0a2eb221d3bf477b91169e6d37505874af29fdf
6b2ebb8d1d6404ee08ef8d40a2b7287e5fae91082d192f1f9274960405effb4217b7bf0ed8484c15a42d96dbc00243560d099e2952f324742654c35e6dea0396
607f1dcea0437d7e3db48b1684196e767cbce087e70dc482c6ad400330bfbd65a465ac08660c36aaa34ed272c0a2eb221d3bf477b91169e6d37505874af29fdf
*---------------------
*DECK OF THE TEMPLATE:
*---------------------
10ec68e0da09df590123da4068c8faf8167e3b87ecbbe0bf3165bc4d1c5b28473ec929d11a5670a4c28a688e191d78af15f9b57a836304e94e744a8c32391436
3a738892b8c238127b60f6de48144737a280ed97bfd2a816e847dda77d5f9443cb2c3e28993ee88c20a667e76e3c4eb7c5028486c2f545245e0163e3a04e656e
5fc5d8d830b1d3ced1f043ccc286a4b417f95bd8405a3439e847dda77d5f9443cb2c3e28993ee88c20a667e76e3c4eb7c5028486c2f545245e0163e3a04e656e
b3628f810d62eaf75246e8f6ed1bc91f32a3abef513b78e7e847dda77d5f9443cb2c3e28993ee88c20a667e76e3c4eb7c5028486c2f545245e0163e3a04e656e
59b1a7bd3e348f73e3848dbb3a852ed136806a8e381bf9a0cb2c3e28993ee88c20a667e76e3c4eb7c5028486c2f54524d85ff5a019547ae0b5ed34f74a6b722d
1b1ad9b08ba17d31cba332b2a7d2dfa497e73ee37d0573063165bc4d1c5b28473ec929d11a5670a4c28a688e191d78af15f9b57a836304e94e744a8c32391436
b8172aae42531ae67b0a62310ebe517b97e73ee37d0573063165bc4d1c5b28473ec929d11a5670a4c28a688e191d78af15f9b57a836304e94e744a8c32391436
*BB1 0 54 I= {KP}*(V(23, 22)^2)^(ALPHA_IN/2)
*BB2 0 24 I= sign(V(23, 22))*(V(54)^2)^(DIV/2)[Ref: COMMENTS(1)]
28f766d64f387b063f730f3e2357fdcd73a5bdd37c425292b7988afd94288de71ee8d6b50d99ea642c71995212750002c2356fa0b0fe3ea9a4847e5eed1f8bbb
cfcdf4bf26b99cbd3f730f3e2357fdcd79b0ef2167010ca0a1b1e71ab08328d862aa6c666b78b859692b2bf9fffb4918dbada8cfcc20fff269122a50abca9fda
a59469103dc02d06c778ca26a0febf9c4a6a3f8d859eb355969a5cf8c9fa1becd928a896f5c47f0eac3dd73861010663cd338572fb15674a6abe8ea93f6099a0
9a998a2e727bb8efc778ca26a0febf9c4a6a3f8d859eb355969a5cf8c9fa1becd928a896f5c47f0eac3dd73861010663cd338572fb15674a6abe8ea93f6099a0
*-----------
*MODEL USED:
*-----------
2c82f61a3c71ea3844d68b94452f90e8118605df2e580a61a493d923a441539212f0472feb8c74c0982489640563ce96bd40008b5550090de2ecd6a98d759ae3
0b829caaeea5d36ea251cf3be9a254d4c7b5d4a40a61afebf16a7dcf83fcb5f7061173c8b6d28e49bf8b6cdf9cb5715b8ea33c28f9e0bcbb38cef7636347e0f0
$CDNENCFINISH
.ENDS model334
*$
*----------------------
*DEFINING MODEL_PARAMS:
*----------------------
*        I1="Current at V1","A"
*        V1="Nom Clamping Voltage","V"
*        I2="Current at V2","A"
*        V2="Max Clamping Voltage","V"
*        CN="Typical Capacitance","F"
*        RON="ON Resistance","ohm"
*---------
*COMMENTS:
*---------
*(1) *BB2 0 24 I= sign(V(23, 22))*(V(54)^2)^(DIV/2)
* is replaced with
*GB2 0 24 VALUE={ABS(V(23,22))*(V(54)^2)^(DIV/2)}
*"SIGN" is eliminated.If "-" is taken in place of 
*SIGN,then convergence problem arises.
*(2)During testing,change the port order in the attribute.
*(3)Enter a non-negative value for CN in the wrapper.
********************************************************
*TEMPLATE(PARAMETERIZED)
*MODEL TYPE : 434
*DEVICE TYPE : 1n2804a
*NAME : ZENER DIODE
*PORT ORDER : 	AN    CAT
*VR made 1 as default and IR made 10n to avoid div by zero *RZ multiplied with 1e-3 for sharp zener current
.SUBCKT model434 8	2
+ params:
+ IC=0
+ STATE=1
+ STATE_FACTOR=0
+ VZT=6.8
+ IZT=18.5E-03
+ ZZT=3.6
+ TCBV=3.4
+ IR=50n
+ VR=1
+ IRM=0
+ TMAX=150
+ VJF=1
+ MF=0.5
+ ISF=1.345E-14
+ NF=931.8E-03
+ RSF=1.074
*+ CJOF=2E-12[Ref: COMMENTS(2)]
+ CJOF=0
+ TEM=27
$CDNENCSTART
eee8c5c7a2bc4b01f045f303678664e7916da0bae22e8cb0bba041dd67c69ce448ea70148a9ac1670c8926c1ac5057c8ccfcd77bf87ca9dca4847e5eed1f8bbb
7125637e781e961c7ad7685081a256b8ea0145c75049b3cbe236f2b8355222fd1fd3d7decf46798ee71f71e187584171cb2c3e28993ee88c3b8867e1a18f91b4
b4e2b45935a3836d7ad7685081a256b8162745cdcd74aacf4a2795f97b6801a5f41077b3e55a0cfaea07460530fec2b071f460432d0f18d7beb8eaba0be089bb
31fcef51370c81874f2d23b2e5a4e24f663b4cc2ac4abfb161372a24ed5d2ff0dea5eac6fdcc0b989b095b32db190f45bb6810b937da5d0c862ed133b43b2141
fc8c4fb92a71ec0c6c04df2a5abebcd152ef8fb8d6ca0dea3c35fdf89f6aea08987b7a17aa306b52665187c2f868ee46cc883b0a0c04272cb32d58f8ed6b6cdf
fc8c4fb92a71ec0c56ae03aa27bcd45252ef8fb8d6ca0dea1c834065d1c8bf4cbbf92fbda4a929ab9e359554e0d729d2cc883b0a0c04272cb32d58f8ed6b6cdf
fc8c4fb92a71ec0c6db90bf418d7a071ae889e30fc235c60be438990af43fbad4eccf498c23a8e2da8a84e36831a672ace523d51c4bd91cd0b9e87779bc9e65f
*.PARAM CJOF__1={if(CJOF==0,CJOF_TEM3,CJOF*1e-12)}[Ref: COMMENTS(2)]
fc8c4fb92a71ec0cdbd3996afb098e9b1f487a9c3ed2ac7e6e44f56c13b08a33b7bc0aefb22e0003134fb1c3d1e02216e71f71e18758417181c6f165fbd39d6f
7125637e781e961ceaa430440772bf3f1008ca75b21a3e4dce84a55e1dc40f74e09068f1689306ece834170b80c0e2ccf6a83b9ce900103148989959e6324569
c307d5c5d1a64521d083dd91c71c966eea07460530fec2b071f460432d0f18d75d91bcfdace50bedc68194e25a36b05d2f08ea26d9acd4d51626ee722c80b0da
7125637e781e961c4d5e5a2885bed12bb5945cf6c5cb392a3ae55fca19dbf85c8c57fb8045abaf6b4bbf5fa8614861d0a465ac08660c36aa9de785e6350bb9b5
*.PARAM IRM__1={if(IRM==1u,IRM_TMP2,IRM)}[Ref: COMMENTS(1)]
7125637e781e961cda22c84b95b5ef23f631554f143cc1b88c57fb8045abaf6bd2f810b99dad54a9ea07460530fec2b071f460432d0f18d7beb8eaba0be089bb
7125637e781e961c0f4275be3939ed195a6c228ab87717e9c2aa0917c52f61bb28fcd3c8a90e8c3cf306e6f11e7c50764bbf5fa8614861d00b9e87779bc9e65f
7125637e781e961ce80c312755c340d0da13668e812849a03165bc4d1c5b28473ec929d11a5670a4c28a688e191d78af15f9b57a836304e94e744a8c32391436
607f1dcea0437d7e754847d074bdceb1c8e7d8d76acc20bbc7b5d4a40a61afebf16a7dcf83fcb5f7061173c8b6d28e49bf8b6cdf9cb5715bcf8e195a9627b1d5
2afc2aac32001ff43a622643fb3993f35b8181a75ee7c35517b7bf0ed8484c15a42d96dbc00243560d099e2952f32474cc6e520fc1d7b4828f37b39ca5c3a6dd
7125637e781e961c67563c4d0d11bec198741a3b7e69b2b5a465ac08660c36aaa34ed272c0a2eb221d3bf477b91169e66504ee72676637d86170c8cd223a3dd4
607f1dcea0437d7ec850ba5a1ac91eb867e393874883a047a465ac08660c36aaa34ed272c0a2eb221d3bf477b91169e66504ee72676637d86170c8cd223a3dd4
607f1dcea0437d7e34498b6ec29341a5e71f71e187584171cb2c3e28993ee88c20a667e76e3c4eb7c5028486c2f54524d85ff5a019547ae0b5ed34f74a6b722d
31fcef51370c81873fcad1db8477ad9ec245c2386163cea3b15f507d07a74d6a969a5cf8c9fa1becd928a896f5c47f0eac3dd73861010663eae1a380b536a4d5
31fcef51370c818716738e8dd93f9de7b0686b7cc15448cd3165bc4d1c5b28473ec929d11a5670a4c28a688e191d78af15f9b57a836304e94e744a8c32391436
b4e2b45935a3836dd7b8142538c17fdaa55d8248247fa1e0a465ac08660c36aaa34ed272c0a2eb221d3bf477b91169e66504ee72676637d86170c8cd223a3dd4
78caa60348a24a0dc032ae8cd1f77238b3460ff475084838e71f71e187584171cb2c3e28993ee88c20a667e76e3c4eb7c5028486c2f545245e0163e3a04e656e
31fcef51370c818721f0a56efe23d740e642a41b9ec1709baff904f9e5e4a7149dbef670f8bf0ca0c2356fa0b0fe3ea9969a5cf8c9fa1bec9aa86a8602f188e5
31fcef51370c8187ddfd25de69afd1146fecf79d1ca98fae9ec079c3201fcb0445150aeb829bc7a3b0bb8d328e43fb255f24fe6560182c7912f269a277b4cc04
78caa60348a24a0df9a0eddc51f865935093a58e141af6b8c7b5d4a40a61afebf16a7dcf83fcb5f7061173c8b6d28e49bf8b6cdf9cb5715bcf8e195a9627b1d5
b7632745492389a22ad047204bef3c8eb7d9fcdc1b0a59cac7b5d4a40a61afebf16a7dcf83fcb5f7061173c8b6d28e49bf8b6cdf9cb5715bcf8e195a9627b1d5
b7632745492389a22fd060c969a08135e71f71e187584171cb2c3e28993ee88c20a667e76e3c4eb7c5028486c2f54524d85ff5a019547ae0b5ed34f74a6b722d
b7632745492389a2280896c8a7b0dc356ad118d7db1cbc7fc7b5d4a40a61afebf16a7dcf83fcb5f7061173c8b6d28e49bf8b6cdf9cb5715bcf8e195a9627b1d5
78caa60348a24a0dbd7902d35312c436bff847ea92943a3ca465ac08660c36aaa34ed272c0a2eb221d3bf477b91169e66504ee72676637d86170c8cd223a3dd4
e07e344ac74ee99df805f39ae44bfe605a5122745b5683433165bc4d1c5b28473ec929d11a5670a4c28a688e191d78af15f9b57a836304e94e744a8c32391436
272fc63520487e9903150a07c47dd3786ad118d7db1cbc7fc7b5d4a40a61afebf16a7dcf83fcb5f7061173c8b6d28e49bf8b6cdf9cb5715bcf8e195a9627b1d5
31fcef51370c81879f088ecadb87dadbf57062b5efd22e3cc4e9b4f13f3e3b28c7b5d4a40a61afebf16a7dcf83fcb5f7061173c8b6d28e4955e2d3aaf506062e
cd5425024779884b4aef9451b9d90ccfaab997c19d120e50cc5b24de29f7b1049ee4f7d29a7e4a6acbb8b841755b67f9ea07460530fec2b0d75bcd22765823a0
b4e2b45935a3836dfb5e69e9bf4b2570a7d7452b2fc8816143cc40a3d0c8bf2e43700bd969b2b6495f671bf5cd44ee674c00171a604120c3a7ef16b6e935ae2c
*.PARAM VRZ ={{RZ}*(IZT - (VZT/RR) - ISF)}
b4e2b45935a3836d83cfb97f4437eeeaee75dac2eaa8266be71f71e187584171cb2c3e28993ee88c20a667e76e3c4eb7c5028486c2f545245e0163e3a04e656e
b4e2b45935a3836d11340042e794a83523b78920d73ff26fdbada8cfcc20fff297ad4226545ad2a8db202453164c6b3df698d431d138b477350de9708957027e
78caa60348a24a0d85c922f46301bc024348000b4728e48817b7bf0ed8484c15a42d96dbc00243560d099e2952f32474cc6e520fc1d7b4828f37b39ca5c3a6dd
272fc63520487e999dc1eb0fb19808afe6b6071833ec94f83942b4150abab651d3a1c49c4d6e49343f8ac5b023935bd5dbada8cfcc20fff269122a50abca9fda
78caa60348a24a0d9455fa24f523c70fcee3621cabc06450520d6aaf474f5438dbada8cfcc20fff297ad4226545ad2a8db202453164c6b3dec9073ecf660b19e
*RZ multiplied with 1e-3 for sharp zener current
b4e2b45935a3836d41cb669adb6ba7a12b15a4765f2797aac93dcba065df774ab4e9073e147a6231e71f71e187584171cb2c3e28993ee88c3b8867e1a18f91b4
31fcef51370c818707a5ff60af14b6af995ba62401c6763f7a8ce9b18707000bdbada8cfcc20fff297ad4226545ad2a8db202453164c6b3dec9073ecf660b19e
*----------------------
*DECK OF THE TEMPLATE:
*----------------------
33b7bbdba69ae7536881452b9dd0d78e3165bc4d1c5b28473ec929d11a5670a4c28a688e191d78af15f9b57a836304e9ac92208faad3ae206f58924d590330fd
*DT1 1 9 M1MDT1 TEMPDT
08c41dbb93ab79ca2333a9b47178a26bea07460530fec2b071f460432d0f18d75d91bcfdace50bedc68194e25a36b05d2f08ea26d9acd4d51626ee722c80b0da
8b1b6a1c66560692c58f658d9ba5ee5bc7b5d4a40a61afebf16a7dcf83fcb5f7061173c8b6d28e49bf8b6cdf9cb5715b8ea33c28f9e0bcbb38cef7636347e0f0
bda027aaaaf1597e43044301f67ffbe535349b43fa92d772644126c9831a96bdcb2c3e28993ee88c20a667e76e3c4eb7c5028486c2f545245e0163e3a04e656e
*RRR 2 8 {RR} 
*DF1 8 2 M1MDF1 TEMPERATURE
605f531e7e75e1aa6ce2c3badfc6a0a5ea07460530fec2b071f460432d0f18d75d91bcfdace50bedc68194e25a36b05d2f08ea26d9acd4d51626ee722c80b0da
1747800afbd45e3aaa105a971a22ebf6c7b5d4a40a61afebf16a7dcf83fcb5f7061173c8b6d28e49bf8b6cdf9cb5715b8ea33c28f9e0bcbb38cef7636347e0f0
*RRBV 3 0 {RBV} TC=TCVBV 0 TEMPERATURE
c0c9fcb2b7024a2d6f6cea9a705c61f814f4bb165fd48cf6d1a287666242787dc7b5d4a40a61afebf16a7dcf83fcb5f7061173c8b6d28e4955e2d3aaf506062e
*-------------
*MODELS USED:
*-------------
*.MODEL M1MDT1 D IS={IST}  N={NT} EG=0.0 XTI=0.0 SPECTREPARASDT
2c82f61a3c71ea386af0a7c2ecc3cec103a212673ebf666c156af946c684f3f4e80294a09bf529f4598563ea98e573addbada8cfcc20fff269122a50abca9fda
2c82f61a3c71ea38e71a455ed9746f67c146203dd8f10f6519f10db209963e200d9d093ae7be7b28b4266c590a0e156c0b161f79f41b4fdcf7787bb38153971a
608e5066341ff6bd969a5cf8c9fa1becd928a896f5c47f0eac3dd73861010663cd338572fb15674ab60f1bb976250b465c5b3e593e86a3d1d47981e189b1490e
765179139e7aa785097ff326968d633ae80294a09bf529f4dbada8cfcc20fff297ad4226545ad2a8db202453164c6b3df698d431d138b477350de9708957027e
$CDNENCFINISH
.ends model434
*$
*----------------------
*DEFINING MODEL_PARAMS:
*----------------------
*	VZT="Breakdown Voltage","V"
*     IZT="Current at VZT","A"
*    	ZZT="Impedance at VZT","Ohm"
*    	TCBV="Temp Coeff of VZT","mV/C"*
*	IR="Rev Leakage Current","A"
*	VR="IR Test Voltage","V"
*	IRM="Max IR at TMAX","A"
*     TMAX="Maximum Temperature","C" 
*     CJOF="Zero-bias Junction Capacitance","pF"
*     VJF="Junction Potential","V"
*     MF="Grading Coefficient"
*	ISF="IS of Forward I-V","A"
*	NF="N of Forward I-V"
*	RSF="RS of Forward I-V","ohm"
*---------
*COMMENTS:
*---------
*(1)Really value of IRM passed from wrapper is 75u.
* "(IRM==1u)" is taken to test the condition for existance of IRM.
*(2)Parameter'CJOF'is not defined in the wrapper.
*CJOF=2E-12(typical value) is collected from datasheet for diodes.
*CJOF==1 is taken to test the existance of parameter "CJOF" 
*(3)TEM=27 is assumed one.To discuss:-Whether it's value will be
*passed from the wrapper
*(4)VDT, VRZ & VLOAD values are colleted from device.prp,were not 
.SUBCKT model434x 8 2
$CDNENCSTART
eee8c5c7a2bc4b01f045f303678664e7916da0bae22e8cb0bba041dd67c69ce448ea70148a9ac1670c8926c1ac5057c8ccfcd77bf87ca9dca4847e5eed1f8bbb
33b7bbdba69ae7536881452b9dd0d78e3165bc4d1c5b28473ec929d11a5670a4c28a688e191d78af15f9b57a836304e9ac92208faad3ae206f58924d590330fd
08c41dbb93ab79ca2333a9b47178a26bea07460530fec2b071f460432d0f18d75d91bcfdace50bedc68194e25a36b05d2f08ea26d9acd4d51626ee722c80b0da
2c82f61a3c71ea386af0a7c2ecc3cec1c7dd53a4a5e2d22c37b3c477873195254ea2d269566cc44b572f61e762cf88f4710f626c2faf14a6a4847e5eed1f8bbb
8b1b6a1c66560692f467148f06ca8e43969a5cf8c9fa1becd928a896f5c47f0eac3dd73861010663cd338572fb15674ab60f1bb976250b4650b3878e346f4547
bda027aaaaf1597e05569e623d3e1c9b3399766dcd7951c0012c7249a6a879707a66f6c447e8389c3165bc4d1c5b28473ec929d11a5670a4781949cc07dcb338
605f531e7e75e1aa2b84a73d2a94272edbada8cfcc20fff297ad4226545ad2a8db202453164c6b3df698d431d138b477851aa6696e9ecab6e7bfc89ab8c9cb54
2c82f61a3c71ea38e71a455ed9746f67dcae4477629c5f0789b1af19a707ae0dbb2194053334d2f789309200694a466cb4a86fda93c0bf9db061714b5aa9fa0c
69a27e70969cb8c6b59e0b2cc24885c762f33dba97f723e8ed33560c3f2593e7ea07460530fec2b071f460432d0f18d75d91bcfdace50bed85886bc4a38902ef
1747800afbd45e3a65b781e01913e8ed969a5cf8c9fa1becd928a896f5c47f0eac3dd73861010663cd338572fb15674ab60f1bb976250b4650b3878e346f4547
c0c9fcb2b7024a2d4834c6a5ff0d8c0e30c9976af3864d4570babd7ad7d47e62d353eda542c33b348604fe18fb3d5286dbada8cfcc20fff269122a50abca9fda
$CDNENCFINISH
.ends model434x
*$
********************************************************
*TEMPLATE(PARAMETERIZED)
*DEVICE TYPE:1ss226
*MODEL TYPE: 495
*NAME: "SERIES HALF BRIDGE" 
*PORT_ORDER:		"NDC" "AC" "PDC" 
.SUBCKT  model495 	1	2	3
+ PARAMS:
+ STATE_FACTOR=0
+ IS=0.1E-15
+ RS=0
+ N=0
+ TT=0
+ CJO=0
+ VJ=0
+ M=0
+ XTI=3
+ BV=0
+ IBV=0
+ EG=1.11
+ KF=0
+ AF=1
+ FC=0.5
*---------------------
*DECK OF THE TEMPLATE:
*---------------------
$CDNENCSTART
eee8c5c7a2bc4b01f045f303678664e7916da0bae22e8cb0bba041dd67c69ce448ea70148a9ac1670c8926c1ac5057c8ccfcd77bf87ca9dca4847e5eed1f8bbb
c6e5e792c9ae477cae23706f83b0a7b5c7b5d4a40a61afebf16a7dcf83fcb5f7061173c8b6d28e49bf8b6cdf9cb5715b8ea33c28f9e0bcbb38cef7636347e0f0
37d07c47e2035b73ae23706f83b0a7b5c7b5d4a40a61afebf16a7dcf83fcb5f7061173c8b6d28e49bf8b6cdf9cb5715b8ea33c28f9e0bcbb38cef7636347e0f0
*-----------
*MODEL USED:
*-----------
d7072740a938f0e7ecba23d83a554ef94625365394a76fdd52dd82b094940d00c745e23d0141c8e16cc3f855e7011facb21e8da5bb7c0aa9c85373c3d341ef12
ac47db5a4d64e5a38c3d7996f06641f56d2237ff045cdd0d0f40e12c5d6baf77e273d32442cde710a5cc768239c7f8c09bfb1f7e434f973fcecf1789adfba57e
*IMAX=200 MINR=0.00268965
$CDNENCFINISH
.ENDS model495
*$
*--------------------
*DEFINING MODEL_PARAMS:
*--------------------
*    	IS="Saturation current","A"
*	RS="Ohmic resistance","Ohm"
*   	N="Emission coefficient",""
*	TT="Transit time","sec"
*    	CJO="Junction capacitance","F"
*	VJ="Junction potential","V"
*   	M="Grading coefficient",""
*	EG="Activation energy","eV"
*   	XTI="Isat temperature exp",""
*	KF="Flicker noise coef.",""
*    	AF="Flicker noise exp.",""
*	FC="Depletion cap. coef.",""
*    	BV="Rev breakdown volt","V"
*	IBV="I at V-breakdown","A"
*--------
*COMMENT:
*--------
*IMAX & MINR are eliminated,since they are not supported by V9.2.
********************************************************
*TEMPLATE(PARAMETERIZED)
*DEVICE TYPE: 1S2836
*MODEL TYPE: 496
*NAME:-"COMMON ANODE HALF BRIDGE" 
*PORT_ORDER: 	"AC1" "DC" "AC2" 
.SUBCKT model496  1	2	3
+ PARAMS:
+ STATE_FACTOR=0
+ IS=0.1E-15
+ RS=0
+ N=0
+ TT=0
+ CJO=0
+ VJ=0
+ M=0
+ EG=1.11
+ XTI=3
+ KF=0
+ AF=1
+ FC=0
+ BV=0
+ IBV=0
*---------------------
*DECK OF THE TEMPLATE:
*---------------------
$CDNENCSTART
eee8c5c7a2bc4b01f045f303678664e7916da0bae22e8cb0bba041dd67c69ce448ea70148a9ac1670c8926c1ac5057c8ccfcd77bf87ca9dca4847e5eed1f8bbb
0e6bab034b546336ae23706f83b0a7b5c7b5d4a40a61afebf16a7dcf83fcb5f7061173c8b6d28e49bf8b6cdf9cb5715b8ea33c28f9e0bcbb38cef7636347e0f0
37d07c47e2035b73ae23706f83b0a7b5c7b5d4a40a61afebf16a7dcf83fcb5f7061173c8b6d28e49bf8b6cdf9cb5715b8ea33c28f9e0bcbb38cef7636347e0f0
*-----------
*MODEL USED:
*-----------
d7072740a938f0e7ecba23d83a554ef9010e94f8c8b77d131d4cb6a7fb466be752dd82b094940d00d5e0bfff9565f221fb36630548fd4cb38fd4a21d574e9a0f
4f5aebd091428a09ea07460530fec2b071f460432d0f18d75d91bcfdace50bedc68194e25a36b05d2f08ea26d9acd4d5ce2563597ad4adb49033bdcfaf2d419c
26df28272156a8698b94d792fd2fd0a8b931f070e4fd1a33f17b26d00797e03fbdf9bb5062f7323f986ad0a3a29c5beb5c341e3b185be9582d3c3e4b2e7cc49b
*IMAX=10 MINR=0.1
$CDNENCFINISH
.ENDS model496
*$
*----------------------
*DEFINING MODEL_PARAMS:
*----------------------
*    	IS="Saturation current","A"
*	RS="Ohmic resistance","Ohm"
*   	N="Emission coefficient",""
*	TT="Transit time","sec"
*    	CJO="Junction capacitance","F"
*	VJ="Junction potential","V"
*   	M="Grading coefficient",""
*	EG="Activation energy","eV"
*   	XTI="Isat temperature exp",""
*	KF="Flicker noise coef.",""
*    	AF="Flicker noise exp.",""
*	FC="Depletion cap. coef.",""
*    	BV="Rev breakdown volt","V"
*	IBV="I at V-breakdown","A"
*---------
*COMMENTS:
*---------
*IMAX & MINR are eliminated since they are not supprted by PSpice in V9.2.
********************************************************
*TEMPLATE(PARAMETERIZED)
*DEVICE TYPE: 1s2837
*MODEL TYPE: 497
*NAME:-"COMMON CATHODE HALF BRIDGE" 
*PORT_ORDER:	"AC1" "DC" "AC2" 
.SUBCKT model497 	1	2	3
+ PARAMS:
+ STATE_FACTOR=0
+ IS=0.1E-15
+ RS=0
+ N=1
+ TT=0
+ CJO=0
+ VJ=1
+ M=0.5
+ EG=1.11
+ XTI=3
+ KF=0
+ AF=1
+ FC=0.5
+ BV=200
+ IBV=1E-10
*---------------------
*DECK OF THE TEMPLATE:
*---------------------
$CDNENCSTART
eee8c5c7a2bc4b01f045f303678664e7916da0bae22e8cb0bba041dd67c69ce448ea70148a9ac1670c8926c1ac5057c8ccfcd77bf87ca9dca4847e5eed1f8bbb
c6e5e792c9ae477cae23706f83b0a7b5c7b5d4a40a61afebf16a7dcf83fcb5f7061173c8b6d28e49bf8b6cdf9cb5715b8ea33c28f9e0bcbb38cef7636347e0f0
6bc49be0398d51ddae23706f83b0a7b5c7b5d4a40a61afebf16a7dcf83fcb5f7061173c8b6d28e49bf8b6cdf9cb5715b8ea33c28f9e0bcbb38cef7636347e0f0
*-----------
*MODEL USED:
*-----------
d7072740a938f0e7ecba23d83a554ef9010e94f8c8b77d131d4cb6a7fb466be752dd82b094940d00d5e0bfff9565f221fb36630548fd4cb38fd4a21d574e9a0f
e46557dccb29222e00588bac0cd4eeae9c8b4cca0d2c00a0c7b5d4a40a61afebf16a7dcf83fcb5f7061173c8b6d28e49bf8b6cdf9cb5715bcf8e195a9627b1d5
00f77ce99839ba3b5431d03e286c10806812bb4f649ffd735b554a465ad87cce67d8dca70d7f9798c7f1191eb65d9132c7b5d4a40a61afeb4f4901b8b0112c2e
*IMAX=10 MINR=0.1	
$CDNENCFINISH
.ENDS model497
*$
*----------------------
*DEFINING MODEL_PARAMS:
*----------------------
*    	IS="Saturation current","A"
*	RS="Ohmic resistance","Ohm"
*   	N="Emission coefficient"
*	TT="Transit time","sec"
*    	CJO="Junction capacitance","F"
*	VJ="Junction potential","V"
*   	M="Grading coefficient",""
*	EG="Activation energy","eV"
*   	XTI="Isat temperature exp",""
*	KF="Flicker noise coef.",""
*    	AF="Flicker noise exp.",""
*	FC="Depletion cap. coef.",""
*    	BV="Rev breakdown volt","V"
*	IBV="I at V-breakdown","A"
*--------
*COMMENT:
*--------
*IMAX & MINR are eliminated since they are not supported by V9.2.
********************************************************
*TEMPLATE(PARAMETERIZED)
*DEVICE_TYPE: 3n256
*MODEL_TYPE: 498
*NAME:"FULL BRIDGE\4-pin"
*PORT_ORDER:	"PDC" "AC2" "NDC" "AC1"
.SUBCKT model498 	1	2	3	4
+ PARAMS:
+ STATE_FACTOR=0
+ IS=0.1E-15
+ RS=0
+ N=0
+ TT=0
+ CJO=0
+ VJ=0
+ M=0
+ XTI=3
+ BV=0
+ IBV=0
+ EG=1.11
+ KF=0
+ AF=1
+ FC=0.5
*---------------------
*DECK OF THE TEMPLATE:
*---------------------
$CDNENCSTART