Version 4
SHEET 1 1648 680
WIRE 96 -256 80 -256
WIRE 464 -256 96 -256
WIRE 960 -256 464 -256
WIRE 1376 -256 960 -256
WIRE 80 -208 80 -256
WIRE 1328 -208 704 -208
WIRE 208 -192 128 -192
WIRE 464 -192 464 -256
WIRE 960 -192 960 -256
WIRE 1376 -192 1376 -256
WIRE 704 -176 704 -208
WIRE 704 -176 512 -176
WIRE 912 -176 704 -176
WIRE 1328 -176 1328 -208
WIRE 80 -64 80 -112
WIRE 208 -64 208 -192
WIRE 208 -64 80 -64
WIRE 560 -64 208 -64
WIRE 464 -48 464 -96
WIRE 960 -48 960 -96
WIRE 560 -32 560 -64
WIRE 560 -32 512 -32
WIRE 912 -32 560 -32
WIRE -304 -16 -304 -32
WIRE 704 -16 704 -176
WIRE 1376 32 1376 -96
WIRE 1584 32 1376 32
WIRE 464 80 464 48
WIRE 608 80 464 80
WIRE 688 80 688 48
WIRE 688 80 608 80
WIRE 720 80 720 48
WIRE 960 80 960 48
WIRE 960 80 720 80
WIRE 1088 80 960 80
WIRE 1232 80 1088 80
WIRE -304 96 -304 64
WIRE 464 96 464 80
WIRE -304 128 -304 96
WIRE 960 144 960 80
WIRE 80 160 80 -64
WIRE 1232 160 1232 80
WIRE 1376 160 1376 32
WIRE 608 176 608 80
WIRE 608 176 512 176
WIRE 528 240 128 240
WIRE 608 240 608 176
WIRE 608 240 528 240
WIRE -304 256 -304 208
WIRE 960 272 960 224
WIRE 960 272 816 272
WIRE 960 288 960 272
WIRE 816 368 816 272
WIRE 912 368 816 368
WIRE 80 416 80 256
WIRE 464 416 464 192
WIRE 464 416 80 416
WIRE 960 416 960 384
WIRE 960 416 464 416
WIRE 1232 416 1232 240
WIRE 1232 416 960 416
WIRE 1376 416 1376 240
WIRE 1376 416 1232 416
WIRE 80 464 80 416
FLAG 80 464 0
FLAG 96 -256 vdd
FLAG 528 240 vctat
FLAG 1088 80 vptat1
FLAG 816 272 vptat2
FLAG -304 -144 0
FLAG -304 -224 vdd
FLAG -304 96 0
FLAG -304 -32 v+
FLAG -304 256 v-
FLAG 736 0 v-
FLAG 672 16 v+
FLAG 1584 32 vref
SYMBOL nmos 128 160 M0
SYMATTR InstName M7
SYMATTR Value FDC637AN
SYMBOL pmos 128 -112 R180
SYMATTR InstName M1
SYMATTR Value FDC638P
SYMBOL res 944 128 R0
SYMATTR InstName R1
SYMATTR Value 65k
SYMBOL res 1360 144 R0
SYMATTR InstName R3
SYMATTR Value 400k
SYMBOL nmos 512 96 M0
SYMATTR InstName M8
SYMATTR Value FDC637AN
SYMBOL pmos 512 -96 R180
SYMATTR InstName M2
SYMATTR Value FDC638P
SYMBOL pmos 512 48 R180
SYMATTR InstName M5
SYMATTR Value FDC638P
SYMBOL Opamps\\opamp2 640 16 R270
WINDOW 3 -30 121 Left 2
SYMATTR Value LM741/NS
SYMATTR InstName U1
SYMBOL pmos 912 -96 M180
SYMATTR InstName M3
SYMATTR Value FDC638P
SYMBOL pmos 912 48 M180
SYMATTR InstName M6
SYMATTR Value FDC638P
SYMBOL nmos 912 288 R0
SYMATTR InstName M9
SYMATTR Value FDC637AN
SYMBOL res 1216 144 R0
SYMATTR InstName R2
SYMATTR Value 475k
SYMBOL pmos 1328 -96 M180
SYMATTR InstName M4
SYMATTR Value FDC638P
SYMBOL voltage -304 -240 R0
WINDOW 123 0 0 Left 0
WINDOW 39 0 0 Left 0
SYMATTR InstName V1
SYMATTR Value 0.5
SYMBOL voltage -304 -32 R0
WINDOW 123 0 0 Left 0
WINDOW 39 0 0 Left 0
SYMATTR InstName V2
SYMATTR Value 12
SYMBOL voltage -304 112 R0
WINDOW 123 0 0 Left 0
WINDOW 39 0 0 Left 0
SYMATTR InstName V3
SYMATTR Value 12
TEXT -304 -640 Left 2 ;Universidade Federal de Santa Catarina - UFSC\nEngenharia Eletrônica - EEL7303 - Circuitos Eletrônicos Analógicos\nProjeto - Sensor de Temperatura - Referência de Tensão Bandgap\nGustavo Simas e André Mattos
TEXT -296 -448 Left 2 !;ac dec 101 10 100MEG
TEXT -288 -480 Left 2 !;.op
TEXT -288 -408 Left 2 !.tran 0 1m 0 10n
TEXT -296 -360 Left 2 !;.four 1k V(vref)
TEXT -288 -504 Left 2 !.include D:\\Usuário\\Documents\\GitHub\\EEL7303\\Laboratorios\\Projeto\\Modelos\\LM741.MOD
TEXT -280 -328 Left 2 !.step TEMP 0 20 5
